Circuit: * C:\Users\User\Desktop\Proiect PM\LtSpice Models\VoltageRegulator\Voltage Regulator Model.asc

Direct Newton iteration failed to find .op point.  (Use ".option noopiter" to skip.)
Starting Gmin stepping
Gmin = 10
Gmin = 1.07374
Gmin = 0.115292
vernier = 0.5
vernier = 0.25
vernier = 0.333333
Gmin = 0.0906861
vernier = 0.444444
Gmin = 0.0349903
vernier = 0.592592
vernier = 0.790123
Gmin = 0.00742701
vernier = 1
Gmin = 0.000868881
Gmin = 9.32954e-005
Gmin = 1.00175e-005
Gmin = 1.07562e-006
Gmin = 1.15494e-007
Gmin = 1.24011e-008
Gmin = 1.33156e-009
Gmin = 1.42975e-010
Gmin = 1.53518e-011
Gmin = 1.64839e-012
Gmin = 1.76994e-013
Gmin = 0
Gmin stepping succeeded in finding the operating point.


Date: Fri Jul 05 15:31:57 2024
Total elapsed time: 0.111 seconds.

tnom = 27
temp = 27
method = modified trap
totiter = 2749
traniter = 2096
tranpoints = 1049
accept = 1049
rejected = 0
matrix size = 12
fillins = 0
solver = Normal
Matrix Compiler1: 820 bytes object code size  0.2/0.1/[0.1]
Matrix Compiler2: off  [0.1]/0.1/0.1

