Circuit: * C:\Users\User\Desktop\Proiect PM\LtSpice Models\LogicLevelConverter\LogicLevelConverter.asc

Limiting rise time of source v§signal to 0.1
Limiting fall time of source v§signal to 0.1
Direct Newton iteration for .op point succeeded.

Date: Sun Jun 30 14:35:55 2024
Total elapsed time: 0.104 seconds.

tnom = 27
temp = 27
method = modified trap
totiter = 4922
traniter = 4904
tranpoints = 1842
accept = 1609
rejected = 233
matrix size = 16
fillins = 0
solver = Normal
Matrix Compiler1: 912 bytes object code size  0.8/0.3/[0.3]
Matrix Compiler2: 1.20 KB object code size  0.7/0.5/[0.4]

